Circuit: * C:\Users\tagsys\Documents\GitHub\In-concrete-Backscatter\PCB\SIMU\IC-matching.asc

Direct Newton iteration for .op point succeeded.
Heightened Def Con from 0.569447 to 0.569447

Date: Sun Jul 03 20:40:58 2022
Total elapsed time: 69.543 seconds.

tnom = 27
temp = 27
method = modified trap
totiter = 19516338
traniter = 19516309
tranpoints = 6586865
accept = 4480122
rejected = 2106744
matrix size = 29
fillins = 0
solver = Normal
Thread vector: 2.1/5.2[1] 3.6/2.6[2] 0.5/1.0[1] 0.1/0.7[1]  2592/500
Matrix Compiler1:      74 opcodes  0.3/[0.1]/0.2
Matrix Compiler2: off  [0.1]/0.2/0.2

