Circuit: * C:\Users\tagsys\Documents\GitHub\In-concrete-Backscatter\PCB\SIMU\IC.asc

Direct Newton iteration for .op point succeeded.

Date: Sun Jul 03 20:39:33 2022
Total elapsed time: 44.435 seconds.

tnom = 27
temp = 27
method = modified trap
totiter = 13180396
traniter = 13180367
tranpoints = 4341364
accept = 2873562
rejected = 1467802
matrix size = 28
fillins = 0
solver = Normal
Thread vector: 1.8/1.8[1] 1.3/1.1[2] 0.2/0.4[1] 0.1/0.3[1]  2592/500
Matrix Compiler1:      71 opcodes  0.2/[0.1]/0.1
Matrix Compiler2: off  [0.1]/0.2/0.2

