Circuit: * C:\Users\tagsys\Documents\GitHub\In-concrete-Backscatter\PCB\SIMU\LTC3588-matching.asc

Direct Newton iteration for .op point succeeded.
Heightened Def Con from 0.383803 to 0.383803

Date: Sun Jul 03 21:19:20 2022
Total elapsed time: 68.052 seconds.

tnom = 27
temp = 27
method = modified trap
totiter = 15734923
traniter = 15734901
tranpoints = 5180394
accept = 3515615
rejected = 1664780
matrix size = 25
fillins = 0
solver = Normal
Thread vector: 1.7/3.9[1] 3.2/2.3[2] 0.2/0.9[1] 0.1/0.9[1]  2592/500
Matrix Compiler1:      53 opcodes  0.2/[0.1]/0.1
Matrix Compiler2: 1.53 KB object code size  0.1/0.1/[0.1]

