Circuit: * C:\Users\tagsys\Documents\GitHub\In-concrete-Backscatter\PCB\SIMU\LTC3588-transformer.asc

WARNING: Node N001 is floating.

Direct Newton iteration for .op point succeeded.

Date: Mon Jul 04 11:33:17 2022
Total elapsed time: 2726.943 seconds.

tnom = 27
temp = 27
method = modified trap
totiter = 220607840
traniter = 220607818
tranpoints = 92923994
accept = 64699225
rejected = 28224769
matrix size = 29
fillins = 2
solver = Normal
Matrix Compiler1:      80 opcodes  0.3/[0.1]/0.2
Matrix Compiler2: off  [0.1]/0.1/0.2

