Circuit: * C:\Users\tagsys\Documents\GitHub\In-concrete-Backscatter\PCB\SIMU\LTC3588.asc

Direct Newton iteration for .op point succeeded.

Date: Sun Jul 03 20:49:11 2022
Total elapsed time: 40.423 seconds.

tnom = 27
temp = 27
method = modified trap
totiter = 3952292
traniter = 3952270
tranpoints = 1442735
accept = 960513
rejected = 482222
matrix size = 26
fillins = 4
solver = Normal
Matrix Compiler1:      67 opcodes  0.2/[0.1]/0.1
Matrix Compiler2: off  [0.1]/0.1/0.1

